Using: /home/software/synopsys-2013/hspice-H-2013.03/hspice/linux/hspice input.ckt
 ****** HSPICE -- H-2013.03 32-BIT (Feb 27 2013) RHEL32 ******                  
  Copyright (C) 2013 Synopsys, Inc. All Rights Reserved.                        
  Unpublished-rights reserved under US copyright laws.
  This program is protected by law and is subject to the
  terms and conditions of the license agreement from Synopsys.
  Use of this program is your acceptance to be bound by the
  license agreement. HSPICE is the trademark of Synopsys, Inc.
  Input File: input.ckt                                                         
  Command line options: input.ckt
 lic:  
 lic: FLEXlm: v10.9.8 
 lic: USER:   sms821               HOSTNAME: p218inst10.cse.psu.edu 
 lic: HOSTID: 1866da24a72f         PID:      21874 
 lic: Using FLEXlm license file: 
 lic: 1700@telperion 
 lic: Checkout 1 hspice 
 lic: License/Maintenance for hspice will expire on 19-oct-2017/2016.06 
 lic: 9(in_use)/50(total) FLOATING license(s) on SERVER telperion 
 lic:   
 Init: read install configuration file: /home/software/synopsys-2013/hspice-H-2013.03/hspice/meta.cfg
  **warning** (input.ckt:25) Global net name, "gnd", in subckt pin list. The pin will be connected to the local net. Recommend to not use global net names in subckt pin lists.
1****** HSPICE -- H-2013.03 32-BIT (Feb 27 2013) RHEL32 ******                  
 ******  
 ** generated for: hspiced

  ******  circuit name directory
 circuit number to circuit name directory
   number circuitname                     definition         multiplier
        0 main circuit
        1 xi3.                            full_adder         1.00 
        2 xi2.                            full_adder         1.00 
        3 xi1.                            full_adder         1.00 
        4 xi0.                            full_adder         1.00 
        5 xi7.                            setup              1.00 
        6 xi6.                            setup              1.00 
        7 xi5.                            setup              1.00 
        8 xi4.                            setup              1.00 
        9 xi29.                           inverter           1.00 
       10 xi24.                           bypass             1.00 
       11 xi25.                           bypass_mux         1.00 
       12 xi3.xi0.                        sum                1.00 
       13 xi3.xi1.                        carry              1.00 
       14 xi2.xi0.                        sum                1.00 
       15 xi2.xi1.                        carry              1.00 
       16 xi1.xi0.                        sum                1.00 
       17 xi1.xi1.                        carry              1.00 
       18 xi0.xi0.                        sum                1.00 
       19 xi0.xi1.                        carry              1.00 
       20 xi7.xi0.                        generate           1.00 
       21 xi7.xi1.                        propagate          1.00 
       22 xi6.xi0.                        generate           1.00 
       23 xi6.xi1.                        propagate          1.00 
       24 xi5.xi0.                        generate           1.00 
       25 xi5.xi1.                        propagate          1.00 
       26 xi4.xi0.                        generate           1.00 
       27 xi4.xi1.                        propagate          1.00 
       28 xi24.xi3.                       inverter           1.00 
       29 xi24.xi2.                       inverter           1.00 
       30 xi24.xi1.                       inverter           1.00 
       31 xi24.xi0.                       inverter           1.00 
       32 xi25.xi0.                       inverter           1.00 
       33 xi3.xi0.xi1.                    inverter           1.00 
       34 xi3.xi0.xi0.                    inverter           1.00 
       35 xi3.xi1.xi2.                    inverter           1.00 
       36 xi3.xi1.xi1.                    inverter           1.00 
       37 xi3.xi1.xi0.                    inverter           1.00 
       38 xi2.xi0.xi1.                    inverter           1.00 
       39 xi2.xi0.xi0.                    inverter           1.00 
       40 xi2.xi1.xi2.                    inverter           1.00 
       41 xi2.xi1.xi1.                    inverter           1.00 
       42 xi2.xi1.xi0.                    inverter           1.00 
       43 xi1.xi0.xi1.                    inverter           1.00 
       44 xi1.xi0.xi0.                    inverter           1.00 
       45 xi1.xi1.xi2.                    inverter           1.00 
       46 xi1.xi1.xi1.                    inverter           1.00 
       47 xi1.xi1.xi0.                    inverter           1.00 
       48 xi0.xi0.xi1.                    inverter           1.00 
       49 xi0.xi0.xi0.                    inverter           1.00 
       50 xi0.xi1.xi2.                    inverter           1.00 
       51 xi0.xi1.xi1.                    inverter           1.00 
       52 xi0.xi1.xi0.                    inverter           1.00 
       53 xi7.xi0.xi1.                    inverter           1.00 
       54 xi7.xi0.xi0.                    inverter           1.00 
       55 xi7.xi1.xi1.                    inverter           1.00 
       56 xi7.xi1.xi0.                    inverter           1.00 
       57 xi6.xi0.xi1.                    inverter           1.00 
       58 xi6.xi0.xi0.                    inverter           1.00 
       59 xi6.xi1.xi1.                    inverter           1.00 
       60 xi6.xi1.xi0.                    inverter           1.00 
       61 xi5.xi0.xi1.                    inverter           1.00 
       62 xi5.xi0.xi0.                    inverter           1.00 
       63 xi5.xi1.xi1.                    inverter           1.00 
       64 xi5.xi1.xi0.                    inverter           1.00 
       65 xi4.xi0.xi1.                    inverter           1.00 
       66 xi4.xi0.xi0.                    inverter           1.00 
       67 xi4.xi1.xi1.                    inverter           1.00 
       68 xi4.xi1.xi0.                    inverter           1.00 
1****** HSPICE -- H-2013.03 32-BIT (Feb 27 2013) RHEL32 ******                  
 ******  
 ** generated for: hspiced

  ******  mos   model parameters tnom=  25.000 temp=  25.000 *****
 ***************************************************************************
 ***        model parameters  model name:   0:tsmc20n  model type:nmos   ***
 ***************************************************************************

   *** general parameters ***
    deriv=   0.           

   ***  level 49  model parameters  ***

      hspver=    2006.03               level=         49         
     version=        3.1            paramchk=          0         
      apwarn=          1                lite=          0         
      vgslim=          0             binUnit=          1         
      capMod=          2               xpart=        0.5         
      mobMod=          1              nqsMod=          0         
      stiMod=          0                 elm=          5         
    sfvtflag=          0                 tox=    4.1e-09 meter   
          xj=      1e-07 meter       binflag=          0         
        lmin=          0 meter          lmax=          0 meter   
        wmin=          0 meter          wmax=          0 meter   
        lref=          0 meter          wref=          0 meter   
        lint=1.02831e-08 meter          wint=2.02596e-09 meter   
       lmult=          1               wmult=          1         
          ll=          0                 lln=          1         
          lw=          0                 lwn=          1         
         lwl=          0                  wl=          0         
         wln=          1                  ww=          0         
         wwn=          1                 wwl=          0         
         dwg=-6.4982e-10 m/V             dwb= 1.2179e-08 m/V^1/2 
          xl=     -2e-08                  xw=     -1e-08         
          a0=          2                 ags=   0.416968 V^-1    
          b0=-1.06396e-08 meter            b1=     -1e-07 meter   
        keta=-0.00770421 V^-1           voff= -0.0901723 V       
       ngate=          0 cm^-3           vbx=          0 V       
         vbm=         -3 V                xt=   1.55e-07 meter   
        vth0=   0.379659 V               nch= 2.3549e+17 cm^-3   
        nsub=      6e+16 cm^-3           nlx=1.78685e-07 meter   
      gamma1=          0 V^-1/2       gamma2=          0 V^-1/2  
          k1=   0.593517 V^1/2            k2= 0.00238533         
          k3=      0.001                 k3b=    3.19051 V^-1    
          w0=      1e-07 meter          dvt0=    1.72038         
        dvt1=   0.430834                dvt2=  0.0467521 V^-1    
       dvt0w=          0 meter^-1      dvt1w=          0 meter^-1
       dvt2w=          0 V^-1           dsub=  0.0110906         
        eta0= 0.00144804                etab=-0.000275473 V^-1    
          u0=    269.063 cm^2/V/sec         ua=-1.18857e-09 m/V     
          ub=1.93088e-18 (m/V)^2          uc=2.22482e-11 V^-1    
        vsat=    96750.2 m/sec            a1=0.000799632 v^-1    
          a2=   0.999873               delta=       0.01 V       
        rdsw=        105 ohm-um         prwg=        0.5 V^-1    
        prwb=       -0.2 V^-1/2           wr=          1         
        pclm=    1.06226             pdiblc1=   0.317228         
     pdiblc2=  0.0037557             pdiblcb=       -0.1 V^-1    
      pscbe1=5.99596e+10 V/m          pscbe2=5.68602e-08 V/m     
       drout=   0.783102                pvag=   0.356836         
     nfactor=    2.38205                cdsc=    0.00024 f/m^2   
       cdscb=          0 f/V/m^2       cdscd=          0 f/V/m^2 
         cit=          0 f/m^2        alpha0=          0 m/V     
       beta0=         30 V               dlc=1.02831e-08 meter   
         dwc=2.02596e-09 meter           clc=      1e-07 meter   
         cle=        0.6                cgso=   7.45e-10 f/m     
        cgdo=   7.45e-10 f/m            cgbo=      1e-12 f/m     
        cgsl=          0 f/m            cgdl=          0 f/m     
      ckappa=        0.6                  cf=          0 f/m     
        tnom=     300.15 K               kt1=      -0.11 V       
        kt1l=          0                 kt2=      0.022         
         ute=       -1.5                 ua1=   4.31e-09 m/V     
         ub1=  -7.61e-18 (m/V)^2         uc1=   -5.6e-11 m/V^2   
          at=      33000 m/s             prt=          0         
         using Berkeley noise model       noiMod=          1         
        noia=      1e+20                noib=      50000         
        noic=   -1.4e-12                  em=    4.1e+07         
          ef=          1                  af=          1         
          kf=          0              gdsnoi=-1.23457e-29         
         using Hspice diodes            using ACM 
         acm=         0                 hdif=         0 meter    
        ldif=         0 meter             js=         0 amp/m^2  
         jsw=         0 amp/m            xti=         0          
           n=         1                   cj=0.000972514 f/m^2    
          mj=  0.361014                   pb=  0.729251 V        
        cjsw=2.26939e-10 f/m             mjsw=       0.1          
         php=  0.729251 V               pbsw (not used)           
      cjgate=2.26939e-10 f/m            cjswg (not used)           
       mjswg (not used)                 pbswg (not used)           
       lketa=-0.00566719               wketa= 0.00176355         
       pketa=-0.00119699               pvth0=-0.00213993         
         pk2= 0.00186034               peta0=     0.0001         
         pu0=  -0.229528                 pua=-2.87112e-11         
       pvsat=    1427.61               prdsw=    -1.2312         
 ***************************************************************************
 ***        model parameters  model name:   0:tsmc20p  model type:pmos   ***
 ***************************************************************************

   *** general parameters ***
    deriv=   0.           

   ***  level 49  model parameters  ***

      hspver=    2006.03               level=         49         
     version=        3.1            paramchk=          0         
      apwarn=          1                lite=          0         
      vgslim=          0             binUnit=          1         
      capMod=          2               xpart=        0.5         
      mobMod=          1              nqsMod=          0         
      stiMod=          0                 elm=          5         
    sfvtflag=          0                 tox=    4.1e-09 meter   
          xj=      1e-07 meter       binflag=          0         
        lmin=          0 meter          lmax=          0 meter   
        wmin=          0 meter          wmax=          0 meter   
        lref=          0 meter          wref=          0 meter   
        lint=2.42201e-08 meter          wint=          0 meter   
       lmult=          1               wmult=          1         
          ll=          0                 lln=          1         
          lw=          0                 lwn=          1         
         lwl=          0                  wl=          0         
         wln=          1                  ww=          0         
         wwn=          1                 wwl=          0         
         dwg=-2.79099e-08 m/V             dwb=5.97765e-09 m/V^1/2 
          xl=     -2e-08                  xw=     -1e-08         
          a0=    1.76591                 ags=   0.419932 V^-1    
          b0= 9.9605e-07 meter            b1=3.37199e-06 meter   
        keta=  0.0126497 V^-1           voff=  -0.103519 V       
       ngate=          0 cm^-3           vbx=          0 V       
         vbm=         -3 V                xt=   1.55e-07 meter   
        vth0=  -0.421565 V               nch= 4.1589e+17 cm^-3   
        nsub=      6e+16 cm^-3           nlx=7.39315e-08 meter   
      gamma1=          0 V^-1/2       gamma2=          0 V^-1/2  
          k1=   0.595554 V^1/2            k2=  0.0265154         
          k3=          0                 k3b=     10.799 V^-1    
          w0=      1e-06 meter          dvt0=   0.362232         
        dvt1=   0.256034                dvt2=        0.1 V^-1    
       dvt0w=          0 meter^-1      dvt1w=          0 meter^-1
       dvt2w=          0 V^-1           dsub=   0.940025         
        eta0=  0.0079869                etab=  -0.115204 V^-1    
          u0=    119.209 cm^2/V/sec         ua=1.65604e-09 m/V     
          ub=      1e-21 (m/V)^2          uc=     -1e-10 V^-1    
        vsat=     184049 m/sec            a1=    0.45371 v^-1    
          a2=        0.3               delta=       0.01 V       
        rdsw=     201.02 ohm-um         prwg=        0.5 V^-1    
        prwb=       -0.5 V^-1/2           wr=          1         
        pclm=    1.97118             pdiblc1=          0         
     pdiblc2=  0.0195957             pdiblcb=     -0.001 V^-1    
      pscbe1=2.22426e+09 V/m          pscbe2= 6.4242e-10 V/m     
       drout=0.000583046                pvag=     10.227         
     nfactor=    1.80446                cdsc=    0.00024 f/m^2   
       cdscb=          0 f/V/m^2       cdscd=          0 f/V/m^2 
         cit=          0 f/m^2        alpha0=          0 m/V     
       beta0=         30 V               dlc=2.42201e-08 meter   
         dwc=          0 meter           clc=      1e-07 meter   
         cle=        0.6                cgso=   6.52e-10 f/m     
        cgdo=   6.52e-10 f/m            cgbo=      1e-12 f/m     
        cgsl=          0 f/m            cgdl=          0 f/m     
      ckappa=        0.6                  cf=          0 f/m     
        tnom=     300.15 K               kt1=      -0.11 V       
        kt1l=          0                 kt2=      0.022         
         ute=       -1.5                 ua1=   4.31e-09 m/V     
         ub1=  -7.61e-18 (m/V)^2         uc1=   -5.6e-11 m/V^2   
          at=      33000 m/s             prt=          0         
         using Berkeley noise model       noiMod=          1         
        noia=    9.9e+18                noib=       2400         
        noic=    1.4e-12                  em=    4.1e+07         
          ef=          1                  af=          1         
          kf=          0              gdsnoi=-1.23457e-29         
         using Hspice diodes            using ACM 
         acm=         0                 hdif=         0 meter    
        ldif=         0 meter             js=         0 amp/m^2  
         jsw=         0 amp/m            xti=         0          
           n=         1                   cj=0.00115683 f/m^2    
          mj=  0.416198                   pb=  0.860431 V        
        cjsw=1.80032e-10 f/m             mjsw=  0.273514          
         php=  0.860431 V               pbsw (not used)           
      cjgate=1.80032e-10 f/m            cjswg (not used)           
       mjswg (not used)                 pbswg (not used)           
       lketa=-0.00285111               wketa= 0.00247881         
       pketa=  0.0026501               pvth0= 0.00112111         
         pk2= 0.00167133               peta0=     0.0001         
         pu0=   -1.81877                 pua=-7.23748e-11         
         pub=      1e-21               pvsat=        -50         
       prdsw=    12.2644         
  **info** (input.ckt:173) DC voltage reset to initial transient source value              in source        0:v1                  new dc=  0.0000D+00
  **warning** (input.ckt:172) pulse v2 period too small, reset to   3.0200000E-06
  **warning** (input.ckt:166) pulse v5 period too small, reset to   3.0200000E-06
  **warning** (input.ckt:167) pulse v6 period too small, reset to   3.0200000E-06
  **warning** (input.ckt:168) pulse v7 period too small, reset to   3.0200000E-06
  **warning** (input.ckt:169) pulse v8 period too small, reset to   3.0200000E-06
  **warning** (input.ckt:165) pulse v9 period too small, reset to   3.0200000E-06
 

  
  
      
 **info** set option symb=1 internally to help for convergence.
 *****************************************************************
 ******  option summary
 ******
 runlvl  = 3         bypass  = 2         
  
  **warning** (input.ckt:172) pulse v2 period too small, reset to   3.0200000E-06
  **warning** (input.ckt:166) pulse v5 period too small, reset to   3.0200000E-06
  **warning** (input.ckt:167) pulse v6 period too small, reset to   3.0200000E-06
  **warning** (input.ckt:168) pulse v7 period too small, reset to   3.0200000E-06
  **warning** (input.ckt:169) pulse v8 period too small, reset to   3.0200000E-06
  **warning** (input.ckt:165) pulse v9 period too small, reset to   3.0200000E-06
1****** HSPICE -- H-2013.03 32-BIT (Feb 27 2013) RHEL32 ******                  
 ******  
 ** generated for: hspiced

  ******  operating point information tnom=  25.000 temp=  25.000 *****
1****** HSPICE -- H-2013.03 32-BIT (Feb 27 2013) RHEL32 ******                  
 ******  
 ** generated for: hspiced

  ******  transient analysis tnom=  25.000 temp=  25.000 *****

          ***** job concluded
1****** HSPICE -- H-2013.03 32-BIT (Feb 27 2013) RHEL32 ******                  
 ******  
 ** generated for: hspiced

  ******  job statistics summary tnom=  25.000 temp=  25.000 *****
  
  
 ******  Machine Information  ******
 CPU:
 model name	: Intel(R) Xeon(R) CPU E5-1620 v3 @ 3.50GHz
 cpu MHz	: 1200.000
  
 OS:
 Linux version 2.6.32-642.6.2.el6.x86_64 (mockbuild@worker1.bsys.centos.org) (gcc version 4.4.7 20120313 (Red Hat 4.4.7-17) (GCC) ) #1 SMP Wed Oct 26 06:52:09 UTC 2016


  ******  HSPICE Threads Information  ******

  Command Line Threads Count :     1
  Available CPU Count        :     8
  Actual Threads Count       :     1


  ******  Circuit Statistics  ******
  # nodes       =     122 # elements   =     219
  # resistors   =       0 # capacitors =       5 # inductors   =       0
  # mutual_inds =       0 # vccs       =       0 # vcvs        =       0
  # cccs        =       0 # ccvs       =       0 # volt_srcs   =      10
  # curr_srcs   =       0 # diodes     =       0 # bjts        =       0
  # jfets       =       0 # mosfets    =     204 # U elements  =       0
  # T elements  =       0 # W elements =       0 # B elements  =       0
  # S elements  =       0 # P elements =       0 # va device   =       0
  # vector_srcs =       0 # N elements =       0


  ******  Runtime Statistics (seconds)  ******

  analysis           time    # points   tot. iter  conv.iter
  op point           0.07           1          22
  transient          0.17         301        1011         299 rev=        47
  readin             0.03
  errchk             0.01
  setup              0.00
  output             0.00


           peak memory used        123.45 megabytes
           total cpu time            0.33 seconds
           total elapsed time        0.62 seconds
           job started at     20:12:12 11/07/2016
           job ended   at     20:12:13 11/07/2016


>info:         ***** hspice job concluded
 lic: Release hspice token(s) 
 lic: total license checkout elapse time:        0.28(s)
